Circuit: * Z:\home\francisco\Workspace\catimex\current-meas\ltspice\v1_ltc2055_lt624X.asc

WARNING: Less than two connections to node NC_01.  This node is used by R26.

Date: Mon Mar 19 15:12:33 2018
Total elapsed time: 0.042 seconds.

tnom = 27
temp = 27
method = trap
totiter = 59
traniter = 0
tranpoints = 0
accept = 0
rejected = 0
matrix size = 36
fillins = 24
solver = Normal

