Circuit: * Z:\home\francisco\Workspace\catimex\current-meas\ltspice\v3_max4239_lt624X.asc

WARNING: Less than two connections to node U1:AMP1:199.  This node is used by E:U1:AMP1:CHK.
WARNING: Less than two connections to node NC_01.  This node is used by R26.
Direct Newton iteration failed to find .op point.  (Use ".option noopiter" to skip.)
Starting Gmin stepping
Increasing initial diagonal Gmin to 100
Gmin = 100
Gmin = 10.7374
vernier = 0.5
vernier = 0.25
Gmin = 6.65701
vernier = 0.125
vernier = 0.166667
vernier = 0.0833333
Gmin = 5.59119
vernier = 0.111111
vernier = 0.0555555
Gmin = 4.80634
vernier = 0.074074
vernier = 0.037037
Gmin = 4.26533
vernier = 0.0493827
vernier = 0.0658435
Gmin = 3.79211
vernier = 0.0329218
vernier = 0.0438957
vernier = 0.0219478
Gmin = 3.63962
vernier = 0.0109739
vernier = 0.0146319
Gmin = 3.53809
vernier = 0.0195092
Gmin = 3.39058
vernier = 0.0260122
vernier = 0.0130061
Gmin = 3.27704
vernier = 0.0173415
vernier = 0.023122
Gmin = 3.1203
vernier = 0.0308293
vernier = 0.0154146
vernier = 0.00770732
vernier = 0.00385366
vernier = 0.00192683
vernier = 0.000963415
vernier = 0.000481708
Gmin = 0
Gmin = 0
Gmin stepping failed

Starting source stepping with srcstepmethod=0
Source Step = 3.0303%
Source Step = 24.4318%
Source Step = 25.5682%
Source Step = 26.0417%
Source Step = 26.4323%
Source Step = 26.5122%
Source Step = 26.5418%
Source Step = 26.5714%
Source Step = 26.601%
Source Step = 26.6306%
Source Step = 26.6602%
Source Step = 26.6897%
Source Step = 26.7193%
Source Step = 26.7489%
Source Step = 26.7785%
vernier = 0.00146484
Source Step = 26.817%
Source Step = 26.8614%
Source Step = 26.9058%
Source Step = 26.9502%
Source Step = 26.9946%
vernier = 0.00219727
Source Step = 27.05%
Source Step = 27.1166%
Source Step = 27.1832%
Source Step = 27.2498%
Source Step = 27.3164%
Source Step = 27.383%
Source Step = 27.4495%
Source Step = 27.5161%
Source Step = 27.5827%
Source Step = 27.6493%
vernier = 0.0032959
Source Step = 27.7359%
Source Step = 27.8357%
Source Step = 27.9356%
Source Step = 28.0355%
Source Step = 28.1354%
vernier = 0.00494385
Source Step = 28.2602%
Source Step = 28.41%
Source Step = 28.5598%
Source Step = 28.7096%
Source Step = 28.8595%
vernier = 0.00741577
Source Step = 29.0392%
Source Step = 29.264%
Source Step = 29.4887%
Source Step = 29.7134%
Source Step = 29.9381%
vernier = 0.0111237
Source Step = 30.1965%
Source Step = 30.5336%
Source Step = 30.8707%
Source Step = 31.2078%
Source Step = 31.5449%
vernier = 0.0166855
Source Step = 31.9157%
Source Step = 32.4213%
Source Step = 32.9269%
Source Step = 33.4325%
Source Step = 33.9381%
vernier = 0.0250282
Source Step = 34.469%
Source Step = 35.2275%
Source Step = 35.9859%
Source Step = 36.7443%
Source Step = 37.5028%
Source Step = 38.2612%
vernier = 0.0375423
Source Step = 39.3988%
Source Step = 40.5365%
Source Step = 41.6741%
Source Step = 42.8118%
Source Step = 43.9494%
vernier = 0.0563135
Source Step = 45.599%
Source Step = 47.3055%
Source Step = 49.012%
Source Step = 50.7184%
Source Step = 52.4249%
vernier = 0.0844703
Source Step = 54.814%
Source Step = 55.5179%
vernier = 0.00131985
Source Step = 55.5419%
Source Step = 55.5819%
Starting source stepping with srcstepmethod=1
Source Step = 3.0303%
Source Step = 33.3333%
Source Step = 63.6364%
Source Step = 86.3636%
Source Step = 93.9394%
Source Step = 95.6439%
Source Step = 97.5379%
Source Step = 99.4318%
Source stepping succeeded in finding the operating point.


Date: Mon Mar 19 17:15:43 2018
Total elapsed time: 1.237 seconds.

tnom = 27
temp = 27
method = trap
totiter = 14424
traniter = 0
tranpoints = 0
accept = 0
rejected = 0
matrix size = 121
fillins = 221
solver = Normal
Thread vector: 20.7/16.7[4] 0.0/0.0[0] 3.9/3.3[3] 0.8/1.6[1]  2592/500
Matrix Compiler1:     749 opcodes
Matrix Compiler2: 14.44 KB object code size  3.0/3.2/[1.1]


